! This file was written by the model and records the non-default parameters used at run-time.

! === module MOM ===
ADIABATIC = False                !   [Boolean] default = False
                                ! There are no diapycnal mass fluxes if ADIABATIC is true.  This assumes that KD
                                ! = 0.0 and that there is no buoyancy forcing, but makes the model faster by
                                ! eliminating subroutine calls.
BULKMIXEDLAYER = False          !   [Boolean] default = True
                                ! If true, use a Kraus-Turner-like bulk mixed layer with transitional buffer
                                ! layers.  Layers 1 through NKML+NKBL have variable densities. There must be at
                                ! least NKML+NKBL+1 layers if BULKMIXEDLAYER is true. BULKMIXEDLAYER can not be
                                ! used with USE_REGRIDDING. The default is influenced by ENABLE_THERMODYNAMICS.
DT = 1200.0                      !   [s]
                                ! The (baroclinic) dynamics time step.  The time-step that is actually used will
                                ! be an integer fraction of the forcing time-step (DT_FORCING in ocean-only mode
                                ! or the coupling timestep in coupled mode.)
BOUND_SALINITY = True           !   [Boolean] default = False
                                ! If true, limit salinity to being positive. (The sea-ice model may ask for more
                                ! salt than is available and drive the salinity negative otherwise.)
MIN_SALINITY = 0.01             !   [PPT] default = 0.0
                                ! The minimum value of salinity when BOUND_SALINITY=True.
! === module MOM_domains ===
REENTRANT_X = False              !   [Boolean] default = True
                                ! If true, the domain is zonally reentrant.
REENTRANT_Y = False             !   [Boolean] default = False
NIGLOBAL = 1680                 ! 1680 (1km), 840 (2km), 420 (4km)
                                ! The total number of thickness grid points in the x-direction in the physical
                                ! domain. With STATIC_MEMORY_ this is set in MOM_memory.h at compile time.
NJGLOBAL = 2880                 ! 2880 (1km), 1440 (2km), 720 (4km)
                                ! The total number of thickness grid points in the y-direction in the physical
                                ! domain. With STATIC_MEMORY_ this is set in MOM_memory.h at compile time.

! === module MOM_fixed_initialization ===
INPUTDIR = "INPUT"              ! default = "."
                                ! The directory in which input files are found.
SAVE_INITIAL_CONDS = False      !   [Boolean] default = False
                                ! If true, write the initial conditions to a file given by IC_OUTPUT_FILE.
IC_OUTPUT_FILE = "IceShelf_IC"  ! default = "MOM_IC"
! === module MOM_grid_init ===
GRID_CONFIG = "cartesian"          !
                                ! A character string that determines the method for defining the horizontal
                                ! grid.  Current options are:
                                !     mosaic - read the grid from a mosaic (supergrid)
                                !              file set by GRID_FILE.
                                !     cartesian - use a (flat) Cartesian grid.
                                !     spherical - use a simple spherical grid.
                                !     mercator - use a Mercator spherical grid.

AXIS_UNITS = "m"                ! default = "degrees"
                                ! The units for the Cartesian axes. Valid entries are:
                                !     degrees - degrees of latitude and longitude
                                !     m - meters
                                !     k - kilometers
SOUTHLAT = -3450000.0                  !   [k]
                                ! The southern latitude of the domain or the equivalent starting value for the
                                ! y-axis.
LENLAT = 2880000.0                   !   [k]
                                ! The latitudinal or y-direction length of the domain.
WESTLON = -720000.0                 !   [k] default = 0.0
                                ! The western longitude of the domain or the equivalent starting value for the
                                ! x-axis.
LENLON = 1680000.0                  !   [k]
                                ! The longitudinal or x-direction length of the domain.
TOPO_CONFIG = "file"            !
                                ! This specifies how bathymetry is specified:
                                !     file - read bathymetric information from the file
                                !       specified by (TOPO_FILE).
                                !     flat - flat bottom set to MAXIMUM_DEPTH.
                                !     bowl - an analytically specified bowl-shaped basin
                                !       ranging between MAXIMUM_DEPTH and MINIMUM_DEPTH.
                                !     spoon - a similar shape to 'bowl', but with an vertical
                                !       wall at the southern face.
                                !     halfpipe - a zonally uniform channel with a half-sine
                                !       profile in the meridional direction.
                                !     bbuilder - build topography from list of functions.
                                !     benchmark - use the benchmark test case topography.
                                !     Neverworld - use the Neverworld test case topography.
                                !     DOME - use a slope and channel configuration for the
                                !       DOME sill-overflow test case.
                                !     ISOMIP - use a slope and channel configuration for the
                                !       ISOMIP test case.
                                !     DOME2D - use a shelf and slope configuration for the
                                !       DOME2D gravity current/overflow test case.
                                !     Kelvin - flat but with rotated land mask.
                                !     seamount - Gaussian bump for spontaneous motion test case.
                                !     dumbbell - Sloshing channel with reservoirs on both ends.
                                !     shelfwave - exponential slope for shelfwave test case.
                                !     Phillips - ACC-like idealized topography used in the Phillips config.
                                !     dense - Denmark Strait-like dense water formation and overflow.
                                !     USER - call a user modified routine.
TOPO_FILE = "Grnld_1km.nc"

TOPO_VARNAME = "bed"

MINIMUM_DEPTH = 1.0             !   [m] default = 0.0
                                ! If MASKING_DEPTH is unspecified, then anything shallower than MINIMUM_DEPTH is
                                ! assumed to be land and all fluxes are masked out. If MASKING_DEPTH is
                                ! specified, then all depths shallower than MINIMUM_DEPTH but deeper than
                                ! MASKING_DEPTH are rounded to MINIMUM_DEPTH.
MAXIMUM_DEPTH = 6500.0          !   [m]
                                ! The maximum depth of the ocean.

! === module MOM_verticalGrid ===
! Parameters providing information about the vertical grid.
NK = 1                          !   [nondim]
                                ! The number of model layers.

! === module MOM_EOS ===
EQN_OF_STATE = "LINEAR"         ! default = "WRIGHT"
                                ! EQN_OF_STATE determines which ocean equation of state should be used.
                                ! Currently, the valid choices are "LINEAR", "UNESCO", "WRIGHT", "NEMO" and
                                ! "TEOS10". This is only used if USE_EOS is true.
EOS_QUADRATURE = True           !   [Boolean] default = False
                                ! If true, always use the generic (quadrature) code code for the integrals of
                                ! density.

! === module MOM_restart ===
! === module MOM_tracer_flow_control ===

! === module MOM_coord_initialization ===
COORD_CONFIG = "linear"         ! default = "none"
                                ! This specifies how layers are to be defined:
                                !     ALE or none - used to avoid defining layers in ALE mode
                                !     file - read coordinate information from the file
                                !       specified by (COORD_FILE).
                                !     BFB - Custom coords for buoyancy-forced basin case
                                !       based on SST_S, T_BOT and DRHO_DT.
                                !     linear - linear based on interfaces not layers
                                !     layer_ref - linear based on layer densities
                                !     ts_ref - use reference temperature and salinity
                                !     ts_range - use range of temperature and salinity
                                !       (T_REF and S_REF) to determine surface density
                                !       and GINT calculate internal densities.
                                !     gprime - use reference density (RHO_0) for surface
                                !       density and GINT calculate internal densities.
                                !     ts_profile - use temperature and salinity profiles
                                !       (read from COORD_FILE) to set layer densities.
                                !     USER - call a user modified routine.
LIGHTEST_DENSITY = 1035.0       !   [kg m-3] default = 1027.0
                                ! The reference potential density used for the surface interface.

! === module MOM_state_initialization ===
THICKNESS_CONFIG = "ISOMIP"     ! default = "uniform"
                                ! A string that determines how the initial layer thicknesses are specified for a
                                ! new run:
                                !     file - read interface heights from the file specified
                                !     thickness_file - read thicknesses from the file specified
                                !       by (THICKNESS_FILE).
                                !     coord - determined by ALE coordinate.
                                !     uniform - uniform thickness layers evenly distributed
                                !       between the surface and MAXIMUM_DEPTH.
                                !     list - read a list of positive interface depths.
                                !     DOME - use a slope and channel configuration for the
                                !       DOME sill-overflow test case.
                                !     ISOMIP - use a configuration for the
                                !       ISOMIP test case.
                                !     benchmark - use the benchmark test case thicknesses.
                                !     Neverworld - use the Neverworld test case thicknesses.
                                !     search - search a density profile for the interface
                                !       densities. This is not yet implemented.
                                !     circle_obcs - the circle_obcs test case is used.
                                !     DOME2D - 2D version of DOME initialization.
                                !     adjustment2d - 2D lock exchange thickness ICs.
                                !     sloshing - sloshing gravity thickness ICs.
                                !     seamount - no motion test with seamount ICs.
                                !     dumbbell - sloshing channel ICs.
                                !     soliton - Equatorial Rossby soliton.
                                !     rossby_front - a mixed layer front in thermal wind balance.
                                !     USER - call a user modified routine.
TS_CONFIG = "fit"               !
                                ! A string that determines how the initial temperatures and salinities are
                                ! specified for a new run:
                                !     file - read velocities from the file specified
                                !       by (TS_FILE).
                                !     fit - find the temperatures that are consistent with
                                !       the layer densities and salinity S_REF.
                                !     TS_profile - use temperature and salinity profiles
                                !       (read from TS_FILE) to set layer densities.
                                !     benchmark - use the benchmark test case T & S.
                                !     linear - linear in logical layer space.
                                !     DOME2D - 2D DOME initialization.
                                !     ISOMIP - ISOMIP initialization.
                                !     adjustment2d - 2d lock exchange T/S ICs.
                                !     sloshing - sloshing mode T/S ICs.
                                !     seamount - no motion test with seamount ICs.
                                !     dumbbell - sloshing channel ICs.
                                !     rossby_front - a mixed layer front in thermal wind balance.
                                !     SCM_CVMix_tests - used in the SCM CVMix tests.
                                !     USER - call a user modified routine.
T_REF = -0.5                    !   [degC]
                                ! A reference temperature used in initialization.
FIT_SALINITY = True             !   [Boolean] default = False
                                ! If true, accept the prescribed temperature and fit the salinity; otherwise
                                ! take salinity and fit temperature.

! === module MOM_diag_mediator ===
NUM_DIAG_COORDS = 1             ! default = 1
                                ! The number of diagnostic vertical coordinates to use. For each coordinate, an
                                ! entry in DIAG_COORDS must be provided.
DIAG_COORDS = "z Z ZSTAR"
                                ! A list of string tuples associating diag_table modules to a coordinate
                                ! definition used for diagnostics. Each string is of the form
                                ! "MODULE_SUFFIX,PARAMETER_SUFFIX,COORDINATE_NAME".

! === module MOM_lateral_mixing_coeffs ===

! === module MOM_set_visc ===
KV = 1.0E-04                    !   [m2 s-1]
                                ! The background kinematic viscosity in the interior. The molecular value, ~1e-6
                                ! m2 s-1, may be used.
KV_BBL_MIN = 0.01               !   [m2 s-1] default = 1.0E-04
                                ! The minimum viscosities in the bottom boundary layer.
KV_TBL_MIN = 0.01               !   [m2 s-1] default = 1.0E-04
                                ! The minimum viscosities in the top boundary layer.

! === module MOM_thickness_diffuse ===
KHTH_MAX_CFL = 0.1              !   [nondimensional] default = 0.8
                                ! The maximum value of the local diffusive CFL ratio that is permitted for the
                                ! thickness diffusivity. 1.0 is the marginally unstable value in a pure layered
                                ! model, but much smaller numbers (e.g. 0.1) seem to work better for ALE-based
                                ! models.

! === module MOM_porous_barriers ===

! === module MOM_dynamics_split_RK2 ===

! === module MOM_continuity ===

! === module MOM_continuity_PPM ===
! === module MOM_CoriolisAdv ===

! === module MOM_PressureForce ===

! === module MOM_PressureForce_FV ===

! === module MOM_hor_visc ===

! === module MOM_vert_friction ===
HMIX_FIXED = 10.0               !   [m]
                                ! The prescribed depth over which the near-surface viscosity and diffusivity are
                                ! elevated when the bulk mixed layer is not used.

! === module MOM_barotropic ===

! === module MOM_diagnostics ===

! === module MOM_diabatic_driver ===
! The following parameters are used for diabatic processes.

! === module MOM_tracer_advect ===

! === module MOM_tracer_hor_diff ===
! === module MOM_sum_output ===
ENERGYSAVEDAYS = 0.25           !   [days] default = 1.0
                                ! The interval in units of TIMEUNIT between saves of the energies of the run and
                                ! other globally summed diagnostics.
ENERGYFYLE = "ocean.stats"
TIMEUNIT = 8.64E+04
! === module ocean_stochastics_init ===

! === module MOM_surface_forcing ===

! === module MOM_restart ===

! === module MOM_main (MOM_driver) ===
DAYMAX = 1000.0                 !   [days]
                                ! The final time of the whole simulation, in units of TIMEUNIT seconds.  This
                                ! also sets the potential end time of the present run segment if the end time is
                                ! not set via ocean_solo_nml in input.nml.
