 &MOM_input_nml
         output_directory = './',
         input_filename = 'n'
         restart_input_dir = 'INPUT/',
         restart_output_dir = 'RESTART/',
         parameter_filename = 'INPUT/MOM_input','INPUT/MOM_override','INPUT/MOM_IS_input'
